Circuit: * P:\Uoe\Electrical\Motor-Driver\2019-2020\Simulations\Motor Voltage Feedback\Draft1.asc

Direct Newton iteration for .op point succeeded.

Date: Thu Nov 21 19:26:47 2019
Total elapsed time: 0.031 seconds.

tnom = 27
temp = 27
method = modified trap
totiter = 2037
traniter = 2034
tranpoints = 1018
accept = 1018
rejected = 0
matrix size = 3
fillins = 0
solver = Normal
Matrix Compiler1:       5 opcodes  0.0/[0.0]/0.0
Matrix Compiler2:      15 opcodes  0.0/[0.0]/0.0

