Circuit: * P:\Uoe\Electrical\Motor-Driver\2019-2020\Simulations\Motor Voltage Feedback\Draft1.asc


Date: Tue Nov 19 19:22:56 2019
Total elapsed time: 0.040 seconds.

tnom = 27
temp = 27
method = trap
totiter = 0
traniter = 0
tranpoints = 0
accept = 0
rejected = 0
matrix size = 6
fillins = 0
solver = Normal

