Circuit: * P:\Uoe\Electrical\Motor-Driver\2019-2020\Simulations\Throttle Input Filter\Circuit.asc

Direct Newton iteration for .op point succeeded.

Date: Fri Nov 15 17:14:44 2019
Total elapsed time: 0.505 seconds.

tnom = 27
temp = 27
method = trap
totiter = 21
traniter = 0
tranpoints = 0
accept = 0
rejected = 0
matrix size = 18
fillins = 6
solver = Normal
Matrix Compiler1:      65 opcodes
Matrix Compiler2: 1.57 KB object code size
