Circuit: * P:\Uoe\Electrical\Motor-Driver\2019-2020\Simulations\Throttle Input Filter\Draft1.asc

.OP point found by inspection.

Date: Tue Nov 19 18:37:18 2019
Total elapsed time: 0.027 seconds.

tnom = 27
temp = 27
method = trap
totiter = 1400
traniter = 0
tranpoints = 0
accept = 0
rejected = 0
matrix size = 3
fillins = 0
solver = Normal
Matrix Compiler1: 50 bytes object code size  0.0/0.0/[0.0]
Matrix Compiler2: 175 bytes object code size  0.0/0.1/[0.0]

