Circuit: * P:\Uoe\Electrical\Motor-Driver\2019-2020\Simulations\3.3V Power filter\Powerfilter.asc


Date: Thu Nov 21 19:29:50 2019
Total elapsed time: 0.016 seconds.

tnom = 27
temp = 27
method = trap
totiter = 0
traniter = 0
tranpoints = 0
accept = 0
rejected = 0
matrix size = 3
fillins = 0
solver = Normal

